6
	Energy:      48.8273400
N         -6.06008        2.49622        0.04030
N         -4.97205        3.43770       -0.04030
H         -6.87598        2.91666        0.49900
H         -5.81356        1.70093        0.63997
H         -5.21857        4.23298       -0.63998
H         -4.15615        3.01725       -0.49900
